PNNL/TaxonomyFeeders/PGE_Models/GLD Simulation Primary/GLD Simulation Primary/MC0006/MC0006_glmfile_PVdist.glm
//*********************************************
// Include the modules
//*********************************************

module climate;
module generators;

//*********************************************
// Climate
//*********************************************

object climate {
    tmyfile "CA-San_francisco.tmy2";
}

//object csv_reader {
//    name my_csv_reader;
//    filename climate_csv.csv;
//}

//object climate {
//    tmyfile climate_csv.csv;
//    reader my_csv_reader;
//}

//*********************************************
// Transformer config Objects
//*********************************************
object transformer_configuration {
	name Xfrm_config_PV_L_10348_A;
	connect_type SINGLE_PHASE_CENTER_TAPPED;
	install_type POLETOP;
	power_rating 10000;
	primary_voltage 2400;
	secondary_voltage 120;
	resistance 0.09;
	reactance 1.81;
}

object transformer_configuration {
	name Xfrm_config_PV_L_10348_C;
	connect_type SINGLE_PHASE_CENTER_TAPPED;
	install_type POLETOP;
	power_rating 10000;
	primary_voltage 2400;
	secondary_voltage 120;
	resistance 0.09;
	reactance 1.81;
}

object transformer_configuration {
	name Xfrm_config_PV_L_10348_B;
	connect_type SINGLE_PHASE_CENTER_TAPPED;
	install_type POLETOP;
	power_rating 10000;
	primary_voltage 2400;
	secondary_voltage 120;
	resistance 0.09;
	reactance 1.81;
}

object transformer_configuration {
	name Xfrm_config_PV_L_113771_C;
	connect_type SINGLE_PHASE_CENTER_TAPPED;
	install_type POLETOP;
	power_rating 10000;
	primary_voltage 2400;
	secondary_voltage 120;
	resistance 0.09;
	reactance 1.81;
}

object transformer_configuration {
	name Xfrm_config_PV_L_113771_A;
	connect_type SINGLE_PHASE_CENTER_TAPPED;
	install_type POLETOP;
	power_rating 10000;
	primary_voltage 2400;
	secondary_voltage 120;
	resistance 0.09;
	reactance 1.81;
}

object transformer_configuration {
	name Xfrm_config_PV_L_82417_A;
	connect_type SINGLE_PHASE_CENTER_TAPPED;
	install_type POLETOP;
	power_rating 10000;
	primary_voltage 2400;
	secondary_voltage 120;
	resistance 0.09;
	reactance 1.81;
}

object transformer_configuration {
	name Xfrm_config_PV_L_82417_C;
	connect_type SINGLE_PHASE_CENTER_TAPPED;
	install_type POLETOP;
	power_rating 10000;
	primary_voltage 2400;
	secondary_voltage 120;
	resistance 0.09;
	reactance 1.81;
}

object transformer_configuration {
	name Xfrm_config_PV_L_82417_B;
	connect_type SINGLE_PHASE_CENTER_TAPPED;
	install_type POLETOP;
	power_rating 10000;
	primary_voltage 2400;
	secondary_voltage 120;
	resistance 0.09;
	reactance 1.81;
}

object transformer_configuration {
	name Xfrm_config_PV_L_146575_A;
	connect_type SINGLE_PHASE_CENTER_TAPPED;
	install_type POLETOP;
	power_rating 10000;
	primary_voltage 2400;
	secondary_voltage 120;
	resistance 0.09;
	reactance 1.81;
}

object transformer_configuration {
	name Xfrm_config_PV_L_83081_C;
	connect_type SINGLE_PHASE_CENTER_TAPPED;
	install_type POLETOP;
	power_rating 10000;
	primary_voltage 2400;
	secondary_voltage 120;
	resistance 0.09;
	reactance 1.81;
}

object transformer_configuration {
	name Xfrm_config_PV_L_83081_B;
	connect_type SINGLE_PHASE_CENTER_TAPPED;
	install_type POLETOP;
	power_rating 10000;
	primary_voltage 2400;
	secondary_voltage 120;
	resistance 0.09;
	reactance 1.81;
}

object transformer_configuration {
	name Xfrm_config_PV_L_83081_A;
	connect_type SINGLE_PHASE_CENTER_TAPPED;
	install_type POLETOP;
	power_rating 10000;
	primary_voltage 2400;
	secondary_voltage 120;
	resistance 0.09;
	reactance 1.81;
}

object transformer_configuration {
	name Xfrm_config_PV_L_99277_A;
	connect_type SINGLE_PHASE_CENTER_TAPPED;
	install_type POLETOP;
	power_rating 10000;
	primary_voltage 2400;
	secondary_voltage 120;
	resistance 0.09;
	reactance 1.81;
}

object transformer_configuration {
	name Xfrm_config_PV_L_99277_C;
	connect_type SINGLE_PHASE_CENTER_TAPPED;
	install_type POLETOP;
	power_rating 10000;
	primary_voltage 2400;
	secondary_voltage 120;
	resistance 0.09;
	reactance 1.81;
}

object transformer_configuration {
	name Xfrm_config_PV_L_99277_B;
	connect_type SINGLE_PHASE_CENTER_TAPPED;
	install_type POLETOP;
	power_rating 10000;
	primary_voltage 2400;
	secondary_voltage 120;
	resistance 0.09;
	reactance 1.81;
}

object transformer_configuration {
	name Xfrm_config_PV_L_67632_A;
	connect_type SINGLE_PHASE_CENTER_TAPPED;
	install_type POLETOP;
	power_rating 10000;
	primary_voltage 2400;
	secondary_voltage 120;
	resistance 0.09;
	reactance 1.81;
}

object transformer_configuration {
	name Xfrm_config_PV_L_67632_B;
	connect_type SINGLE_PHASE_CENTER_TAPPED;
	install_type POLETOP;
	power_rating 10000;
	primary_voltage 2400;
	secondary_voltage 120;
	resistance 0.09;
	reactance 1.81;
}

object transformer_configuration {
	name Xfrm_config_PV_L_66363_A;
	connect_type SINGLE_PHASE_CENTER_TAPPED;
	install_type POLETOP;
	power_rating 10000;
	primary_voltage 2400;
	secondary_voltage 120;
	resistance 0.09;
	reactance 1.81;
}

object transformer_configuration {
	name Xfrm_config_PV_L_66363_C;
	connect_type SINGLE_PHASE_CENTER_TAPPED;
	install_type POLETOP;
	power_rating 10000;
	primary_voltage 2400;
	secondary_voltage 120;
	resistance 0.09;
	reactance 1.81;
}

object transformer_configuration {
	name Xfrm_config_PV_L_66363_B;
	connect_type SINGLE_PHASE_CENTER_TAPPED;
	install_type POLETOP;
	power_rating 10000;
	primary_voltage 2400;
	secondary_voltage 120;
	resistance 0.09;
	reactance 1.81;
}

object transformer_configuration {
	name Xfrm_config_PV_L_71601_A;
	connect_type SINGLE_PHASE_CENTER_TAPPED;
	install_type POLETOP;
	power_rating 10000;
	primary_voltage 2400;
	secondary_voltage 120;
	resistance 0.09;
	reactance 1.81;
}

object transformer_configuration {
	name Xfrm_config_PV_L_71601_B;
	connect_type SINGLE_PHASE_CENTER_TAPPED;
	install_type POLETOP;
	power_rating 10000;
	primary_voltage 2400;
	secondary_voltage 120;
	resistance 0.09;
	reactance 1.81;
}

object transformer_configuration {
	name Xfrm_config_PV_L_71601_C;
	connect_type SINGLE_PHASE_CENTER_TAPPED;
	install_type POLETOP;
	power_rating 10000;
	primary_voltage 2400;
	secondary_voltage 120;
	resistance 0.09;
	reactance 1.81;
}

object transformer_configuration {
	name Xfrm_config_PV_L_71872_A;
	connect_type SINGLE_PHASE_CENTER_TAPPED;
	install_type POLETOP;
	power_rating 10000;
	primary_voltage 2400;
	secondary_voltage 120;
	resistance 0.09;
	reactance 1.81;
}

object transformer_configuration {
	name Xfrm_config_PV_L_71872_B;
	connect_type SINGLE_PHASE_CENTER_TAPPED;
	install_type POLETOP;
	power_rating 10000;
	primary_voltage 2400;
	secondary_voltage 120;
	resistance 0.09;
	reactance 1.81;
}

object transformer_configuration {
	name Xfrm_config_PV_L_71872_C;
	connect_type SINGLE_PHASE_CENTER_TAPPED;
	install_type POLETOP;
	power_rating 10000;
	primary_voltage 2400;
	secondary_voltage 120;
	resistance 0.09;
	reactance 1.81;
}

object transformer_configuration {
	name Xfrm_config_PV_L_144306_A;
	connect_type SINGLE_PHASE_CENTER_TAPPED;
	install_type POLETOP;
	power_rating 10000;
	primary_voltage 2400;
	secondary_voltage 120;
	resistance 0.09;
	reactance 1.81;
}

object transformer_configuration {
	name Xfrm_config_PV_L_144306_B;
	connect_type SINGLE_PHASE_CENTER_TAPPED;
	install_type POLETOP;
	power_rating 10000;
	primary_voltage 2400;
	secondary_voltage 120;
	resistance 0.09;
	reactance 1.81;
}

object transformer_configuration {
	name Xfrm_config_PV_L_144306_C;
	connect_type SINGLE_PHASE_CENTER_TAPPED;
	install_type POLETOP;
	power_rating 10000;
	primary_voltage 2400;
	secondary_voltage 120;
	resistance 0.09;
	reactance 1.81;
}

object transformer_configuration {
	name Xfrm_config_PV_L_44119_A;
	connect_type SINGLE_PHASE_CENTER_TAPPED;
	install_type POLETOP;
	power_rating 10000;
	primary_voltage 2400;
	secondary_voltage 120;
	resistance 0.09;
	reactance 1.81;
}

object transformer_configuration {
	name Xfrm_config_PV_L_44119_B;
	connect_type SINGLE_PHASE_CENTER_TAPPED;
	install_type POLETOP;
	power_rating 10000;
	primary_voltage 2400;
	secondary_voltage 120;
	resistance 0.09;
	reactance 1.81;
}

object transformer_configuration {
	name Xfrm_config_PV_L_44119_C;
	connect_type SINGLE_PHASE_CENTER_TAPPED;
	install_type POLETOP;
	power_rating 10000;
	primary_voltage 2400;
	secondary_voltage 120;
	resistance 0.09;
	reactance 1.81;
}

object transformer_configuration {
	name Xfrm_config_PV_L_95237_A;
	connect_type SINGLE_PHASE_CENTER_TAPPED;
	install_type POLETOP;
	power_rating 10000;
	primary_voltage 2400;
	secondary_voltage 120;
	resistance 0.09;
	reactance 1.81;
}

object transformer_configuration {
	name Xfrm_config_PV_L_95237_C;
	connect_type SINGLE_PHASE_CENTER_TAPPED;
	install_type POLETOP;
	power_rating 10000;
	primary_voltage 2400;
	secondary_voltage 120;
	resistance 0.09;
	reactance 1.81;
}

object transformer_configuration {
	name Xfrm_config_PV_L_95237_B;
	connect_type SINGLE_PHASE_CENTER_TAPPED;
	install_type POLETOP;
	power_rating 10000;
	primary_voltage 2400;
	secondary_voltage 120;
	resistance 0.09;
	reactance 1.81;
}

object transformer_configuration {
	name Xfrm_config_PV_L_23293_B;
	connect_type SINGLE_PHASE_CENTER_TAPPED;
	install_type POLETOP;
	power_rating 10000;
	primary_voltage 2400;
	secondary_voltage 120;
	resistance 0.09;
	reactance 1.81;
}

object transformer_configuration {
	name Xfrm_config_PV_L_23293_C;
	connect_type SINGLE_PHASE_CENTER_TAPPED;
	install_type POLETOP;
	power_rating 10000;
	primary_voltage 2400;
	secondary_voltage 120;
	resistance 0.09;
	reactance 1.81;
}

object transformer_configuration {
	name Xfrm_config_PV_L_23293_A;
	connect_type SINGLE_PHASE_CENTER_TAPPED;
	install_type POLETOP;
	power_rating 10000;
	primary_voltage 2400;
	secondary_voltage 120;
	resistance 0.09;
	reactance 1.81;
}

object transformer_configuration {
	name Xfrm_config_PV_L_12848_B;
	connect_type SINGLE_PHASE_CENTER_TAPPED;
	install_type POLETOP;
	power_rating 10000;
	primary_voltage 2400;
	secondary_voltage 120;
	resistance 0.09;
	reactance 1.81;
}

object transformer_configuration {
	name Xfrm_config_PV_L_12848_C;
	connect_type SINGLE_PHASE_CENTER_TAPPED;
	install_type POLETOP;
	power_rating 10000;
	primary_voltage 2400;
	secondary_voltage 120;
	resistance 0.09;
	reactance 1.81;
}

object transformer_configuration {
	name Xfrm_config_PV_L_71819_A;
	connect_type SINGLE_PHASE_CENTER_TAPPED;
	install_type POLETOP;
	power_rating 10000;
	primary_voltage 2400;
	secondary_voltage 120;
	resistance 0.09;
	reactance 1.81;
}

object transformer_configuration {
	name Xfrm_config_PV_L_93782_C;
	connect_type SINGLE_PHASE_CENTER_TAPPED;
	install_type POLETOP;
	power_rating 10000;
	primary_voltage 2400;
	secondary_voltage 120;
	resistance 0.09;
	reactance 1.81;
}

object transformer_configuration {
	name Xfrm_config_PV_L_71819_C;
	connect_type SINGLE_PHASE_CENTER_TAPPED;
	install_type POLETOP;
	power_rating 10000;
	primary_voltage 2400;
	secondary_voltage 120;
	resistance 0.09;
	reactance 1.81;
}

object transformer_configuration {
	name Xfrm_config_PV_L_71819_B;
	connect_type SINGLE_PHASE_CENTER_TAPPED;
	install_type POLETOP;
	power_rating 10000;
	primary_voltage 2400;
	secondary_voltage 120;
	resistance 0.09;
	reactance 1.81;
}

object transformer_configuration {
	name Xfrm_config_PV_L_93246_C;
	connect_type SINGLE_PHASE_CENTER_TAPPED;
	install_type POLETOP;
	power_rating 10000;
	primary_voltage 2400;
	secondary_voltage 120;
	resistance 0.09;
	reactance 1.81;
}

object transformer_configuration {
	name Xfrm_config_PV_L_93246_B;
	connect_type SINGLE_PHASE_CENTER_TAPPED;
	install_type POLETOP;
	power_rating 10000;
	primary_voltage 2400;
	secondary_voltage 120;
	resistance 0.09;
	reactance 1.81;
}

object transformer_configuration {
	name Xfrm_config_PV_L_93246_A;
	connect_type SINGLE_PHASE_CENTER_TAPPED;
	install_type POLETOP;
	power_rating 10000;
	primary_voltage 2400;
	secondary_voltage 120;
	resistance 0.09;
	reactance 1.81;
}

object transformer_configuration {
	name Xfrm_config_PV_L_110646_A;
	connect_type SINGLE_PHASE_CENTER_TAPPED;
	install_type POLETOP;
	power_rating 10000;
	primary_voltage 2400;
	secondary_voltage 120;
	resistance 0.09;
	reactance 1.81;
}

object transformer_configuration {
	name Xfrm_config_PV_L_47360_C;
	connect_type SINGLE_PHASE_CENTER_TAPPED;
	install_type POLETOP;
	power_rating 10000;
	primary_voltage 2400;
	secondary_voltage 120;
	resistance 0.09;
	reactance 1.81;
}

object transformer_configuration {
	name Xfrm_config_PV_L_47360_B;
	connect_type SINGLE_PHASE_CENTER_TAPPED;
	install_type POLETOP;
	power_rating 10000;
	primary_voltage 2400;
	secondary_voltage 120;
	resistance 0.09;
	reactance 1.81;
}

object transformer_configuration {
	name Xfrm_config_PV_L_47360_A;
	connect_type SINGLE_PHASE_CENTER_TAPPED;
	install_type POLETOP;
	power_rating 10000;
	primary_voltage 2400;
	secondary_voltage 120;
	resistance 0.09;
	reactance 1.81;
}

object transformer_configuration {
	name Xfrm_config_PV_L_80745_A;
	connect_type SINGLE_PHASE_CENTER_TAPPED;
	install_type POLETOP;
	power_rating 10000;
	primary_voltage 2400;
	secondary_voltage 120;
	resistance 0.09;
	reactance 1.81;
}

object transformer_configuration {
	name Xfrm_config_PV_L_80745_C;
	connect_type SINGLE_PHASE_CENTER_TAPPED;
	install_type POLETOP;
	power_rating 10000;
	primary_voltage 2400;
	secondary_voltage 120;
	resistance 0.09;
	reactance 1.81;
}

object transformer_configuration {
	name Xfrm_config_PV_L_80745_B;
	connect_type SINGLE_PHASE_CENTER_TAPPED;
	install_type POLETOP;
	power_rating 10000;
	primary_voltage 2400;
	secondary_voltage 120;
	resistance 0.09;
	reactance 1.81;
}

object transformer_configuration {
	name Xfrm_config_PV_L_147235_B;
	connect_type SINGLE_PHASE_CENTER_TAPPED;
	install_type POLETOP;
	power_rating 10000;
	primary_voltage 2400;
	secondary_voltage 120;
	resistance 0.09;
	reactance 1.81;
}

object transformer_configuration {
	name Xfrm_config_PV_L_147235_A;
	connect_type SINGLE_PHASE_CENTER_TAPPED;
	install_type POLETOP;
	power_rating 10000;
	primary_voltage 2400;
	secondary_voltage 120;
	resistance 0.09;
	reactance 1.81;
}

object transformer_configuration {
	name Xfrm_config_PV_L_88263_A;
	connect_type SINGLE_PHASE_CENTER_TAPPED;
	install_type POLETOP;
	power_rating 10000;
	primary_voltage 2400;
	secondary_voltage 120;
	resistance 0.09;
	reactance 1.81;
}

object transformer_configuration {
	name Xfrm_config_PV_L_146573_B;
	connect_type SINGLE_PHASE_CENTER_TAPPED;
	install_type POLETOP;
	power_rating 10000;
	primary_voltage 2400;
	secondary_voltage 120;
	resistance 0.09;
	reactance 1.81;
}

object transformer_configuration {
	name Xfrm_config_PV_L_110646_B;
	connect_type SINGLE_PHASE_CENTER_TAPPED;
	install_type POLETOP;
	power_rating 10000;
	primary_voltage 2400;
	secondary_voltage 120;
	resistance 0.09;
	reactance 1.81;
}

object transformer_configuration {
	name Xfrm_config_PV_L_7848_A;
	connect_type SINGLE_PHASE_CENTER_TAPPED;
	install_type POLETOP;
	power_rating 10000;
	primary_voltage 2400;
	secondary_voltage 120;
	resistance 0.09;
	reactance 1.81;
}

object transformer_configuration {
	name Xfrm_config_PV_L_129312_B;
	connect_type SINGLE_PHASE_CENTER_TAPPED;
	install_type POLETOP;
	power_rating 10000;
	primary_voltage 2400;
	secondary_voltage 120;
	resistance 0.09;
	reactance 1.81;
}

object transformer_configuration {
	name Xfrm_config_PV_L_7848_C;
	connect_type SINGLE_PHASE_CENTER_TAPPED;
	install_type POLETOP;
	power_rating 10000;
	primary_voltage 2400;
	secondary_voltage 120;
	resistance 0.09;
	reactance 1.81;
}

object transformer_configuration {
	name Xfrm_config_PV_L_7848_B;
	connect_type SINGLE_PHASE_CENTER_TAPPED;
	install_type POLETOP;
	power_rating 10000;
	primary_voltage 2400;
	secondary_voltage 120;
	resistance 0.09;
	reactance 1.81;
}

object transformer_configuration {
	name Xfrm_config_PV_L_69497_B;
	connect_type SINGLE_PHASE_CENTER_TAPPED;
	install_type POLETOP;
	power_rating 10000;
	primary_voltage 2400;
	secondary_voltage 120;
	resistance 0.09;
	reactance 1.81;
}

object transformer_configuration {
	name Xfrm_config_PV_L_69497_C;
	connect_type SINGLE_PHASE_CENTER_TAPPED;
	install_type POLETOP;
	power_rating 10000;
	primary_voltage 2400;
	secondary_voltage 120;
	resistance 0.09;
	reactance 1.81;
}

object transformer_configuration {
	name Xfrm_config_PV_L_88263_B;
	connect_type SINGLE_PHASE_CENTER_TAPPED;
	install_type POLETOP;
	power_rating 10000;
	primary_voltage 2400;
	secondary_voltage 120;
	resistance 0.09;
	reactance 1.81;
}

object transformer_configuration {
	name Xfrm_config_PV_L_69497_A;
	connect_type SINGLE_PHASE_CENTER_TAPPED;
	install_type POLETOP;
	power_rating 10000;
	primary_voltage 2400;
	secondary_voltage 120;
	resistance 0.09;
	reactance 1.81;
}

object transformer_configuration {
	name Xfrm_config_PV_L_5328_B;
	connect_type SINGLE_PHASE_CENTER_TAPPED;
	install_type POLETOP;
	power_rating 10000;
	primary_voltage 2400;
	secondary_voltage 120;
	resistance 0.09;
	reactance 1.81;
}

object transformer_configuration {
	name Xfrm_config_PV_L_5328_A;
	connect_type SINGLE_PHASE_CENTER_TAPPED;
	install_type POLETOP;
	power_rating 10000;
	primary_voltage 2400;
	secondary_voltage 120;
	resistance 0.09;
	reactance 1.81;
}

object transformer_configuration {
	name Xfrm_config_PV_L_17899_B;
	connect_type SINGLE_PHASE_CENTER_TAPPED;
	install_type POLETOP;
	power_rating 10000;
	primary_voltage 2400;
	secondary_voltage 120;
	resistance 0.09;
	reactance 1.81;
}

object transformer_configuration {
	name Xfrm_config_PV_L_93387_C;
	connect_type SINGLE_PHASE_CENTER_TAPPED;
	install_type POLETOP;
	power_rating 10000;
	primary_voltage 2400;
	secondary_voltage 120;
	resistance 0.09;
	reactance 1.81;
}

object transformer_configuration {
	name Xfrm_config_PV_L_93387_B;
	connect_type SINGLE_PHASE_CENTER_TAPPED;
	install_type POLETOP;
	power_rating 10000;
	primary_voltage 2400;
	secondary_voltage 120;
	resistance 0.09;
	reactance 1.81;
}

object transformer_configuration {
	name Xfrm_config_PV_L_93387_A;
	connect_type SINGLE_PHASE_CENTER_TAPPED;
	install_type POLETOP;
	power_rating 10000;
	primary_voltage 2400;
	secondary_voltage 120;
	resistance 0.09;
	reactance 1.81;
}

object transformer_configuration {
	name Xfrm_config_PV_L_112617_A;
	connect_type SINGLE_PHASE_CENTER_TAPPED;
	install_type POLETOP;
	power_rating 10000;
	primary_voltage 2400;
	secondary_voltage 120;
	resistance 0.09;
	reactance 1.81;
}

object transformer_configuration {
	name Xfrm_config_PV_L_112617_B;
	connect_type SINGLE_PHASE_CENTER_TAPPED;
	install_type POLETOP;
	power_rating 10000;
	primary_voltage 2400;
	secondary_voltage 120;
	resistance 0.09;
	reactance 1.81;
}

object transformer_configuration {
	name Xfrm_config_PV_L_112617_C;
	connect_type SINGLE_PHASE_CENTER_TAPPED;
	install_type POLETOP;
	power_rating 10000;
	primary_voltage 2400;
	secondary_voltage 120;
	resistance 0.09;
	reactance 1.81;
}

object transformer_configuration {
	name Xfrm_config_PV_L_109167_B;
	connect_type SINGLE_PHASE_CENTER_TAPPED;
	install_type POLETOP;
	power_rating 10000;
	primary_voltage 2400;
	secondary_voltage 120;
	resistance 0.09;
	reactance 1.81;
}

object transformer_configuration {
	name Xfrm_config_PV_L_109167_C;
	connect_type SINGLE_PHASE_CENTER_TAPPED;
	install_type POLETOP;
	power_rating 10000;
	primary_voltage 2400;
	secondary_voltage 120;
	resistance 0.09;
	reactance 1.81;
}

object transformer_configuration {
	name Xfrm_config_PV_L_109167_A;
	connect_type SINGLE_PHASE_CENTER_TAPPED;
	install_type POLETOP;
	power_rating 10000;
	primary_voltage 2400;
	secondary_voltage 120;
	resistance 0.09;
	reactance 1.81;
}

object transformer_configuration {
	name Xfrm_config_PV_L_120338_A;
	connect_type SINGLE_PHASE_CENTER_TAPPED;
	install_type POLETOP;
	power_rating 10000;
	primary_voltage 2400;
	secondary_voltage 120;
	resistance 0.09;
	reactance 1.81;
}

object transformer_configuration {
	name Xfrm_config_PV_L_120338_C;
	connect_type SINGLE_PHASE_CENTER_TAPPED;
	install_type POLETOP;
	power_rating 10000;
	primary_voltage 2400;
	secondary_voltage 120;
	resistance 0.09;
	reactance 1.81;
}

object transformer_configuration {
	name Xfrm_config_PV_L_120338_B;
	connect_type SINGLE_PHASE_CENTER_TAPPED;
	install_type POLETOP;
	power_rating 10000;
	primary_voltage 2400;
	secondary_voltage 120;
	resistance 0.09;
	reactance 1.81;
}

object transformer_configuration {
	name Xfrm_config_PV_L_88263_C;
	connect_type SINGLE_PHASE_CENTER_TAPPED;
	install_type POLETOP;
	power_rating 10000;
	primary_voltage 2400;
	secondary_voltage 120;
	resistance 0.09;
	reactance 1.81;
}

object transformer_configuration {
	name Xfrm_config_PV_L_11261_A;
	connect_type SINGLE_PHASE_CENTER_TAPPED;
	install_type POLETOP;
	power_rating 10000;
	primary_voltage 2400;
	secondary_voltage 120;
	resistance 0.09;
	reactance 1.81;
}

object transformer_configuration {
	name Xfrm_config_PV_L_11261_B;
	connect_type SINGLE_PHASE_CENTER_TAPPED;
	install_type POLETOP;
	power_rating 10000;
	primary_voltage 2400;
	secondary_voltage 120;
	resistance 0.09;
	reactance 1.81;
}

object transformer_configuration {
	name Xfrm_config_PV_L_11261_C;
	connect_type SINGLE_PHASE_CENTER_TAPPED;
	install_type POLETOP;
	power_rating 10000;
	primary_voltage 2400;
	secondary_voltage 120;
	resistance 0.09;
	reactance 1.81;
}

object transformer_configuration {
	name Xfrm_config_PV_L_89131_A;
	connect_type SINGLE_PHASE_CENTER_TAPPED;
	install_type POLETOP;
	power_rating 10000;
	primary_voltage 2400;
	secondary_voltage 120;
	resistance 0.09;
	reactance 1.81;
}

object transformer_configuration {
	name Xfrm_config_PV_L_89131_C;
	connect_type SINGLE_PHASE_CENTER_TAPPED;
	install_type POLETOP;
	power_rating 10000;
	primary_voltage 2400;
	secondary_voltage 120;
	resistance 0.09;
	reactance 1.81;
}

object transformer_configuration {
	name Xfrm_config_PV_L_89131_B;
	connect_type SINGLE_PHASE_CENTER_TAPPED;
	install_type POLETOP;
	power_rating 10000;
	primary_voltage 2400;
	secondary_voltage 120;
	resistance 0.09;
	reactance 1.81;
}

object transformer_configuration {
	name Xfrm_config_PV_L_66364_B;
	connect_type SINGLE_PHASE_CENTER_TAPPED;
	install_type POLETOP;
	power_rating 10000;
	primary_voltage 2400;
	secondary_voltage 120;
	resistance 0.09;
	reactance 1.81;
}

object transformer_configuration {
	name Xfrm_config_PV_L_66364_C;
	connect_type SINGLE_PHASE_CENTER_TAPPED;
	install_type POLETOP;
	power_rating 10000;
	primary_voltage 2400;
	secondary_voltage 120;
	resistance 0.09;
	reactance 1.81;
}

object transformer_configuration {
	name Xfrm_config_PV_L_66364_A;
	connect_type SINGLE_PHASE_CENTER_TAPPED;
	install_type POLETOP;
	power_rating 10000;
	primary_voltage 2400;
	secondary_voltage 120;
	resistance 0.09;
	reactance 1.81;
}

object transformer_configuration {
	name Xfrm_config_PV_L_146129_A;
	connect_type SINGLE_PHASE_CENTER_TAPPED;
	install_type POLETOP;
	power_rating 10000;
	primary_voltage 2400;
	secondary_voltage 120;
	resistance 0.09;
	reactance 1.81;
}

object transformer_configuration {
	name Xfrm_config_PV_L_12848_A;
	connect_type SINGLE_PHASE_CENTER_TAPPED;
	install_type POLETOP;
	power_rating 10000;
	primary_voltage 2400;
	secondary_voltage 120;
	resistance 0.09;
	reactance 1.81;
}

object transformer_configuration {
	name Xfrm_config_PV_L_146129_C;
	connect_type SINGLE_PHASE_CENTER_TAPPED;
	install_type POLETOP;
	power_rating 10000;
	primary_voltage 2400;
	secondary_voltage 120;
	resistance 0.09;
	reactance 1.81;
}

object transformer_configuration {
	name Xfrm_config_PV_L_146129_B;
	connect_type SINGLE_PHASE_CENTER_TAPPED;
	install_type POLETOP;
	power_rating 10000;
	primary_voltage 2400;
	secondary_voltage 120;
	resistance 0.09;
	reactance 1.81;
}

object transformer_configuration {
	name Xfrm_config_PV_L_136869_C;
	connect_type SINGLE_PHASE_CENTER_TAPPED;
	install_type POLETOP;
	power_rating 10000;
	primary_voltage 2400;
	secondary_voltage 120;
	resistance 0.09;
	reactance 1.81;
}

object transformer_configuration {
	name Xfrm_config_PV_L_136869_B;
	connect_type SINGLE_PHASE_CENTER_TAPPED;
	install_type POLETOP;
	power_rating 10000;
	primary_voltage 2400;
	secondary_voltage 120;
	resistance 0.09;
	reactance 1.81;
}

object transformer_configuration {
	name Xfrm_config_PV_L_136869_A;
	connect_type SINGLE_PHASE_CENTER_TAPPED;
	install_type POLETOP;
	power_rating 10000;
	primary_voltage 2400;
	secondary_voltage 120;
	resistance 0.09;
	reactance 1.81;
}

object transformer_configuration {
	name Xfrm_config_PV_L_67765_A;
	connect_type SINGLE_PHASE_CENTER_TAPPED;
	install_type POLETOP;
	power_rating 10000;
	primary_voltage 2400;
	secondary_voltage 120;
	resistance 0.09;
	reactance 1.81;
}

object transformer_configuration {
	name Xfrm_config_PV_L_67765_B;
	connect_type SINGLE_PHASE_CENTER_TAPPED;
	install_type POLETOP;
	power_rating 10000;
	primary_voltage 2400;
	secondary_voltage 120;
	resistance 0.09;
	reactance 1.81;
}

object transformer_configuration {
	name Xfrm_config_PV_L_139629_A;
	connect_type SINGLE_PHASE_CENTER_TAPPED;
	install_type POLETOP;
	power_rating 10000;
	primary_voltage 2400;
	secondary_voltage 120;
	resistance 0.09;
	reactance 1.81;
}

object transformer_configuration {
	name Xfrm_config_PV_L_139629_B;
	connect_type SINGLE_PHASE_CENTER_TAPPED;
	install_type POLETOP;
	power_rating 10000;
	primary_voltage 2400;
	secondary_voltage 120;
	resistance 0.09;
	reactance 1.81;
}

object transformer_configuration {
	name Xfrm_config_PV_L_139629_C;
	connect_type SINGLE_PHASE_CENTER_TAPPED;
	install_type POLETOP;
	power_rating 10000;
	primary_voltage 2400;
	secondary_voltage 120;
	resistance 0.09;
	reactance 1.81;
}

object transformer_configuration {
	name Xfrm_config_PV_L_129752_B;
	connect_type SINGLE_PHASE_CENTER_TAPPED;
	install_type POLETOP;
	power_rating 10000;
	primary_voltage 2400;
	secondary_voltage 120;
	resistance 0.09;
	reactance 1.81;
}

object transformer_configuration {
	name Xfrm_config_PV_L_129752_C;
	connect_type SINGLE_PHASE_CENTER_TAPPED;
	install_type POLETOP;
	power_rating 10000;
	primary_voltage 2400;
	secondary_voltage 120;
	resistance 0.09;
	reactance 1.81;
}

object transformer_configuration {
	name Xfrm_config_PV_L_129752_A;
	connect_type SINGLE_PHASE_CENTER_TAPPED;
	install_type POLETOP;
	power_rating 10000;
	primary_voltage 2400;
	secondary_voltage 120;
	resistance 0.09;
	reactance 1.81;
}

object transformer_configuration {
	name Xfrm_config_PV_L_31958_A;
	connect_type SINGLE_PHASE_CENTER_TAPPED;
	install_type POLETOP;
	power_rating 10000;
	primary_voltage 2400;
	secondary_voltage 120;
	resistance 0.09;
	reactance 1.81;
}

object transformer_configuration {
	name Xfrm_config_PV_L_31958_C;
	connect_type SINGLE_PHASE_CENTER_TAPPED;
	install_type POLETOP;
	power_rating 10000;
	primary_voltage 2400;
	secondary_voltage 120;
	resistance 0.09;
	reactance 1.81;
}

object transformer_configuration {
	name Xfrm_config_PV_L_31958_B;
	connect_type SINGLE_PHASE_CENTER_TAPPED;
	install_type POLETOP;
	power_rating 10000;
	primary_voltage 2400;
	secondary_voltage 120;
	resistance 0.09;
	reactance 1.81;
}

object transformer_configuration {
	name Xfrm_config_PV_L_100175_A;
	connect_type SINGLE_PHASE_CENTER_TAPPED;
	install_type POLETOP;
	power_rating 10000;
	primary_voltage 2400;
	secondary_voltage 120;
	resistance 0.09;
	reactance 1.81;
}

object transformer_configuration {
	name Xfrm_config_PV_L_125789_B;
	connect_type SINGLE_PHASE_CENTER_TAPPED;
	install_type POLETOP;
	power_rating 10000;
	primary_voltage 2400;
	secondary_voltage 120;
	resistance 0.09;
	reactance 1.81;
}

object transformer_configuration {
	name Xfrm_config_PV_L_125789_C;
	connect_type SINGLE_PHASE_CENTER_TAPPED;
	install_type POLETOP;
	power_rating 10000;
	primary_voltage 2400;
	secondary_voltage 120;
	resistance 0.09;
	reactance 1.81;
}

object transformer_configuration {
	name Xfrm_config_PV_L_125789_A;
	connect_type SINGLE_PHASE_CENTER_TAPPED;
	install_type POLETOP;
	power_rating 10000;
	primary_voltage 2400;
	secondary_voltage 120;
	resistance 0.09;
	reactance 1.81;
}

object transformer_configuration {
	name Xfrm_config_PV_L_139082_B;
	connect_type SINGLE_PHASE_CENTER_TAPPED;
	install_type POLETOP;
	power_rating 10000;
	primary_voltage 2400;
	secondary_voltage 120;
	resistance 0.09;
	reactance 1.81;
}

object transformer_configuration {
	name Xfrm_config_PV_L_139082_A;
	connect_type SINGLE_PHASE_CENTER_TAPPED;
	install_type POLETOP;
	power_rating 10000;
	primary_voltage 2400;
	secondary_voltage 120;
	resistance 0.09;
	reactance 1.81;
}

object transformer_configuration {
	name Xfrm_config_PV_L_95189_A;
	connect_type SINGLE_PHASE_CENTER_TAPPED;
	install_type POLETOP;
	power_rating 10000;
	primary_voltage 2400;
	secondary_voltage 120;
	resistance 0.09;
	reactance 1.81;
}

object transformer_configuration {
	name Xfrm_config_PV_L_95189_C;
	connect_type SINGLE_PHASE_CENTER_TAPPED;
	install_type POLETOP;
	power_rating 10000;
	primary_voltage 2400;
	secondary_voltage 120;
	resistance 0.09;
	reactance 1.81;
}

object transformer_configuration {
	name Xfrm_config_PV_L_95189_B;
	connect_type SINGLE_PHASE_CENTER_TAPPED;
	install_type POLETOP;
	power_rating 10000;
	primary_voltage 2400;
	secondary_voltage 120;
	resistance 0.09;
	reactance 1.81;
}

object transformer_configuration {
	name Xfrm_config_PV_L_61946_A;
	connect_type SINGLE_PHASE_CENTER_TAPPED;
	install_type POLETOP;
	power_rating 10000;
	primary_voltage 2400;
	secondary_voltage 120;
	resistance 0.09;
	reactance 1.81;
}

object transformer_configuration {
	name Xfrm_config_PV_L_146573_A;
	connect_type SINGLE_PHASE_CENTER_TAPPED;
	install_type POLETOP;
	power_rating 10000;
	primary_voltage 2400;
	secondary_voltage 120;
	resistance 0.09;
	reactance 1.81;
}

object transformer_configuration {
	name Xfrm_config_PV_L_61946_C;
	connect_type SINGLE_PHASE_CENTER_TAPPED;
	install_type POLETOP;
	power_rating 10000;
	primary_voltage 2400;
	secondary_voltage 120;
	resistance 0.09;
	reactance 1.81;
}

object transformer_configuration {
	name Xfrm_config_PV_L_61946_B;
	connect_type SINGLE_PHASE_CENTER_TAPPED;
	install_type POLETOP;
	power_rating 10000;
	primary_voltage 2400;
	secondary_voltage 120;
	resistance 0.09;
	reactance 1.81;
}

object transformer_configuration {
	name Xfrm_config_PV_L_93782_B;
	connect_type SINGLE_PHASE_CENTER_TAPPED;
	install_type POLETOP;
	power_rating 10000;
	primary_voltage 2400;
	secondary_voltage 120;
	resistance 0.09;
	reactance 1.81;
}

object transformer_configuration {
	name Xfrm_config_PV_L_21523_B;
	connect_type SINGLE_PHASE_CENTER_TAPPED;
	install_type POLETOP;
	power_rating 10000;
	primary_voltage 2400;
	secondary_voltage 120;
	resistance 0.09;
	reactance 1.81;
}

object transformer_configuration {
	name Xfrm_config_PV_L_21523_C;
	connect_type SINGLE_PHASE_CENTER_TAPPED;
	install_type POLETOP;
	power_rating 10000;
	primary_voltage 2400;
	secondary_voltage 120;
	resistance 0.09;
	reactance 1.81;
}

object transformer_configuration {
	name Xfrm_config_PV_L_21523_A;
	connect_type SINGLE_PHASE_CENTER_TAPPED;
	install_type POLETOP;
	power_rating 10000;
	primary_voltage 2400;
	secondary_voltage 120;
	resistance 0.09;
	reactance 1.81;
}

object transformer_configuration {
	name Xfrm_config_PV_L_93782_A;
	connect_type SINGLE_PHASE_CENTER_TAPPED;
	install_type POLETOP;
	power_rating 10000;
	primary_voltage 2400;
	secondary_voltage 120;
	resistance 0.09;
	reactance 1.81;
}

object transformer_configuration {
	name Xfrm_config_PV_L_92640_B;
	connect_type SINGLE_PHASE_CENTER_TAPPED;
	install_type POLETOP;
	power_rating 10000;
	primary_voltage 2400;
	secondary_voltage 120;
	resistance 0.09;
	reactance 1.81;
}

object transformer_configuration {
	name Xfrm_config_PV_L_146575_B;
	connect_type SINGLE_PHASE_CENTER_TAPPED;
	install_type POLETOP;
	power_rating 10000;
	primary_voltage 2400;
	secondary_voltage 120;
	resistance 0.09;
	reactance 1.81;
}

object transformer_configuration {
	name Xfrm_config_PV_L_57342_B;
	connect_type SINGLE_PHASE_CENTER_TAPPED;
	install_type POLETOP;
	power_rating 10000;
	primary_voltage 2400;
	secondary_voltage 120;
	resistance 0.09;
	reactance 1.81;
}

object transformer_configuration {
	name Xfrm_config_PV_L_57342_C;
	connect_type SINGLE_PHASE_CENTER_TAPPED;
	install_type POLETOP;
	power_rating 10000;
	primary_voltage 2400;
	secondary_voltage 120;
	resistance 0.09;
	reactance 1.81;
}

object transformer_configuration {
	name Xfrm_config_PV_L_82992_A;
	connect_type SINGLE_PHASE_CENTER_TAPPED;
	install_type POLETOP;
	power_rating 10000;
	primary_voltage 2400;
	secondary_voltage 120;
	resistance 0.09;
	reactance 1.81;
}

object transformer_configuration {
	name Xfrm_config_PV_L_82992_C;
	connect_type SINGLE_PHASE_CENTER_TAPPED;
	install_type POLETOP;
	power_rating 10000;
	primary_voltage 2400;
	secondary_voltage 120;
	resistance 0.09;
	reactance 1.81;
}

object transformer_configuration {
	name Xfrm_config_PV_L_57342_A;
	connect_type SINGLE_PHASE_CENTER_TAPPED;
	install_type POLETOP;
	power_rating 10000;
	primary_voltage 2400;
	secondary_voltage 120;
	resistance 0.09;
	reactance 1.81;
}

object transformer_configuration {
	name Xfrm_config_PV_L_135160_B;
	connect_type SINGLE_PHASE_CENTER_TAPPED;
	install_type POLETOP;
	power_rating 10000;
	primary_voltage 2400;
	secondary_voltage 120;
	resistance 0.09;
	reactance 1.81;
}

object transformer_configuration {
	name Xfrm_config_PV_L_135160_A;
	connect_type SINGLE_PHASE_CENTER_TAPPED;
	install_type POLETOP;
	power_rating 10000;
	primary_voltage 2400;
	secondary_voltage 120;
	resistance 0.09;
	reactance 1.81;
}

object transformer_configuration {
	name Xfrm_config_PV_L_62839_B;
	connect_type SINGLE_PHASE_CENTER_TAPPED;
	install_type POLETOP;
	power_rating 10000;
	primary_voltage 2400;
	secondary_voltage 120;
	resistance 0.09;
	reactance 1.81;
}

object transformer_configuration {
	name Xfrm_config_PV_L_62839_A;
	connect_type SINGLE_PHASE_CENTER_TAPPED;
	install_type POLETOP;
	power_rating 10000;
	primary_voltage 2400;
	secondary_voltage 120;
	resistance 0.09;
	reactance 1.81;
}

object transformer_configuration {
	name Xfrm_config_PV_L_89260_A;
	connect_type SINGLE_PHASE_CENTER_TAPPED;
	install_type POLETOP;
	power_rating 10000;
	primary_voltage 2400;
	secondary_voltage 120;
	resistance 0.09;
	reactance 1.81;
}

object transformer_configuration {
	name Xfrm_config_PV_L_89260_B;
	connect_type SINGLE_PHASE_CENTER_TAPPED;
	install_type POLETOP;
	power_rating 10000;
	primary_voltage 2400;
	secondary_voltage 120;
	resistance 0.09;
	reactance 1.81;
}

object transformer_configuration {
	name Xfrm_config_PV_L_89260_C;
	connect_type SINGLE_PHASE_CENTER_TAPPED;
	install_type POLETOP;
	power_rating 10000;
	primary_voltage 2400;
	secondary_voltage 120;
	resistance 0.09;
	reactance 1.81;
}

object transformer_configuration {
	name Xfrm_config_PV_L_46121_B;
	connect_type SINGLE_PHASE_CENTER_TAPPED;
	install_type POLETOP;
	power_rating 10000;
	primary_voltage 2400;
	secondary_voltage 120;
	resistance 0.09;
	reactance 1.81;
}

object transformer_configuration {
	name Xfrm_config_PV_L_46121_A;
	connect_type SINGLE_PHASE_CENTER_TAPPED;
	install_type POLETOP;
	power_rating 10000;
	primary_voltage 2400;
	secondary_voltage 120;
	resistance 0.09;
	reactance 1.81;
}

object transformer_configuration {
	name Xfrm_config_PV_L_17899_A;
	connect_type SINGLE_PHASE_CENTER_TAPPED;
	install_type POLETOP;
	power_rating 10000;
	primary_voltage 2400;
	secondary_voltage 120;
	resistance 0.09;
	reactance 1.81;
}

object transformer_configuration {
	name Xfrm_config_PV_L_129312_C;
	connect_type SINGLE_PHASE_CENTER_TAPPED;
	install_type POLETOP;
	power_rating 10000;
	primary_voltage 2400;
	secondary_voltage 120;
	resistance 0.09;
	reactance 1.81;
}

object transformer_configuration {
	name Xfrm_config_PV_L_17899_C;
	connect_type SINGLE_PHASE_CENTER_TAPPED;
	install_type POLETOP;
	power_rating 10000;
	primary_voltage 2400;
	secondary_voltage 120;
	resistance 0.09;
	reactance 1.81;
}

object transformer_configuration {
	name Xfrm_config_PV_L_129312_A;
	connect_type SINGLE_PHASE_CENTER_TAPPED;
	install_type POLETOP;
	power_rating 10000;
	primary_voltage 2400;
	secondary_voltage 120;
	resistance 0.09;
	reactance 1.81;
}

object transformer_configuration {
	name Xfrm_config_PV_L_100175_B;
	connect_type SINGLE_PHASE_CENTER_TAPPED;
	install_type POLETOP;
	power_rating 10000;
	primary_voltage 2400;
	secondary_voltage 120;
	resistance 0.09;
	reactance 1.81;
}

object transformer_configuration {
	name Xfrm_config_PV_L_115748_A;
	connect_type SINGLE_PHASE_CENTER_TAPPED;
	install_type POLETOP;
	power_rating 10000;
	primary_voltage 2400;
	secondary_voltage 120;
	resistance 0.09;
	reactance 1.81;
}

object transformer_configuration {
	name Xfrm_config_PV_L_115748_C;
	connect_type SINGLE_PHASE_CENTER_TAPPED;
	install_type POLETOP;
	power_rating 10000;
	primary_voltage 2400;
	secondary_voltage 120;
	resistance 0.09;
	reactance 1.81;
}

object transformer_configuration {
	name Xfrm_config_PV_L_7165_B;
	connect_type SINGLE_PHASE_CENTER_TAPPED;
	install_type POLETOP;
	power_rating 10000;
	primary_voltage 2400;
	secondary_voltage 120;
	resistance 0.09;
	reactance 1.81;
}

object transformer_configuration {
	name Xfrm_config_PV_L_7165_A;
	connect_type SINGLE_PHASE_CENTER_TAPPED;
	install_type POLETOP;
	power_rating 10000;
	primary_voltage 2400;
	secondary_voltage 120;
	resistance 0.09;
	reactance 1.81;
}

object transformer_configuration {
	name Xfrm_config_PV_L_92640_A;
	connect_type SINGLE_PHASE_CENTER_TAPPED;
	install_type POLETOP;
	power_rating 10000;
	primary_voltage 2400;
	secondary_voltage 120;
	resistance 0.09;
	reactance 1.81;
}

object transformer_configuration {
	name Xfrm_config_PV_L_6756_A;
	connect_type SINGLE_PHASE_CENTER_TAPPED;
	install_type POLETOP;
	power_rating 10000;
	primary_voltage 2400;
	secondary_voltage 120;
	resistance 0.09;
	reactance 1.81;
}

object transformer_configuration {
	name Xfrm_config_PV_L_6756_B;
	connect_type SINGLE_PHASE_CENTER_TAPPED;
	install_type POLETOP;
	power_rating 10000;
	primary_voltage 2400;
	secondary_voltage 120;
	resistance 0.09;
	reactance 1.81;
}

object transformer_configuration {
	name Xfrm_config_PV_L_6756_C;
	connect_type SINGLE_PHASE_CENTER_TAPPED;
	install_type POLETOP;
	power_rating 10000;
	primary_voltage 2400;
	secondary_voltage 120;
	resistance 0.09;
	reactance 1.81;
}

object transformer_configuration {
	name Xfrm_config_PV_L_107201_C;
	connect_type SINGLE_PHASE_CENTER_TAPPED;
	install_type POLETOP;
	power_rating 10000;
	primary_voltage 2400;
	secondary_voltage 120;
	resistance 0.09;
	reactance 1.81;
}

object transformer_configuration {
	name Xfrm_config_PV_L_107201_B;
	connect_type SINGLE_PHASE_CENTER_TAPPED;
	install_type POLETOP;
	power_rating 10000;
	primary_voltage 2400;
	secondary_voltage 120;
	resistance 0.09;
	reactance 1.81;
}

object transformer_configuration {
	name Xfrm_config_PV_L_107201_A;
	connect_type SINGLE_PHASE_CENTER_TAPPED;
	install_type POLETOP;
	power_rating 10000;
	primary_voltage 2400;
	secondary_voltage 120;
	resistance 0.09;
	reactance 1.81;
}

//*********************************************
// Transformer Objects
//*********************************************
object transformer {
	name Xfrm_L_10348_A;
	phases AS;
	from N_1200110202;
	to N_L_10348_sec_A;
	configuration Xfrm_config_PV_L_10348_A;
}

object transformer {
	name Xfrm_L_10348_C;
	phases CS;
	from N_1200110202;
	to N_L_10348_sec_C;
	configuration Xfrm_config_PV_L_10348_C;
}

object transformer {
	name Xfrm_L_10348_B;
	phases BS;
	from N_1200110202;
	to N_L_10348_sec_B;
	configuration Xfrm_config_PV_L_10348_B;
}

object transformer {
	name Xfrm_L_113771_C;
	phases CS;
	from N_1200130412;
	to N_L_113771_sec_C;
	configuration Xfrm_config_PV_L_113771_C;
}

object transformer {
	name Xfrm_L_113771_A;
	phases AS;
	from N_1200130412;
	to N_L_113771_sec_A;
	configuration Xfrm_config_PV_L_113771_A;
}

object transformer {
	name Xfrm_L_82417_A;
	phases AS;
	from N_1200109737;
	to N_L_82417_sec_A;
	configuration Xfrm_config_PV_L_82417_A;
}

object transformer {
	name Xfrm_L_82417_C;
	phases CS;
	from N_1200109737;
	to N_L_82417_sec_C;
	configuration Xfrm_config_PV_L_82417_C;
}

object transformer {
	name Xfrm_L_82417_B;
	phases BS;
	from N_1200109737;
	to N_L_82417_sec_B;
	configuration Xfrm_config_PV_L_82417_B;
}

object transformer {
	name Xfrm_L_146575_A;
	phases AS;
	from N_1200057348;
	to N_L_146575_sec_A;
	configuration Xfrm_config_PV_L_146575_A;
}

object transformer {
	name Xfrm_L_83081_C;
	phases CS;
	from N_1200175328;
	to N_L_83081_sec_C;
	configuration Xfrm_config_PV_L_83081_C;
}

object transformer {
	name Xfrm_L_83081_B;
	phases BS;
	from N_1200175328;
	to N_L_83081_sec_B;
	configuration Xfrm_config_PV_L_83081_B;
}

object transformer {
	name Xfrm_L_83081_A;
	phases AS;
	from N_1200175328;
	to N_L_83081_sec_A;
	configuration Xfrm_config_PV_L_83081_A;
}

object transformer {
	name Xfrm_L_99277_A;
	phases AS;
	from N_1200130348;
	to N_L_99277_sec_A;
	configuration Xfrm_config_PV_L_99277_A;
}

object transformer {
	name Xfrm_L_99277_C;
	phases CS;
	from N_1200130348;
	to N_L_99277_sec_C;
	configuration Xfrm_config_PV_L_99277_C;
}

object transformer {
	name Xfrm_L_99277_B;
	phases BS;
	from N_1200130348;
	to N_L_99277_sec_B;
	configuration Xfrm_config_PV_L_99277_B;
}

object transformer {
	name Xfrm_L_67632_A;
	phases AS;
	from N_1200076473;
	to N_L_67632_sec_A;
	configuration Xfrm_config_PV_L_67632_A;
}

object transformer {
	name Xfrm_L_67632_B;
	phases BS;
	from N_1200076473;
	to N_L_67632_sec_B;
	configuration Xfrm_config_PV_L_67632_B;
}

object transformer {
	name Xfrm_L_66363_A;
	phases AS;
	from N_1200071893;
	to N_L_66363_sec_A;
	configuration Xfrm_config_PV_L_66363_A;
}

object transformer {
	name Xfrm_L_66363_C;
	phases CS;
	from N_1200071893;
	to N_L_66363_sec_C;
	configuration Xfrm_config_PV_L_66363_C;
}

object transformer {
	name Xfrm_L_66363_B;
	phases BS;
	from N_1200071893;
	to N_L_66363_sec_B;
	configuration Xfrm_config_PV_L_66363_B;
}

object transformer {
	name Xfrm_L_71601_A;
	phases AS;
	from N_1200129566;
	to N_L_71601_sec_A;
	configuration Xfrm_config_PV_L_71601_A;
}

object transformer {
	name Xfrm_L_71601_B;
	phases BS;
	from N_1200129566;
	to N_L_71601_sec_B;
	configuration Xfrm_config_PV_L_71601_B;
}

object transformer {
	name Xfrm_L_71601_C;
	phases CS;
	from N_1200129566;
	to N_L_71601_sec_C;
	configuration Xfrm_config_PV_L_71601_C;
}

object transformer {
	name Xfrm_L_71872_A;
	phases AS;
	from N_1200159551;
	to N_L_71872_sec_A;
	configuration Xfrm_config_PV_L_71872_A;
}

object transformer {
	name Xfrm_L_71872_B;
	phases BS;
	from N_1200159551;
	to N_L_71872_sec_B;
	configuration Xfrm_config_PV_L_71872_B;
}

object transformer {
	name Xfrm_L_71872_C;
	phases CS;
	from N_1200159551;
	to N_L_71872_sec_C;
	configuration Xfrm_config_PV_L_71872_C;
}

object transformer {
	name Xfrm_L_144306_A;
	phases AS;
	from N_1200127693;
	to N_L_144306_sec_A;
	configuration Xfrm_config_PV_L_144306_A;
}

object transformer {
	name Xfrm_L_144306_B;
	phases BS;
	from N_1200127693;
	to N_L_144306_sec_B;
	configuration Xfrm_config_PV_L_144306_B;
}

object transformer {
	name Xfrm_L_144306_C;
	phases CS;
	from N_1200127693;
	to N_L_144306_sec_C;
	configuration Xfrm_config_PV_L_144306_C;
}

object transformer {
	name Xfrm_L_44119_A;
	phases AS;
	from N_1200129832;
	to N_L_44119_sec_A;
	configuration Xfrm_config_PV_L_44119_A;
}

object transformer {
	name Xfrm_L_44119_B;
	phases BS;
	from N_1200129832;
	to N_L_44119_sec_B;
	configuration Xfrm_config_PV_L_44119_B;
}

object transformer {
	name Xfrm_L_44119_C;
	phases CS;
	from N_1200129832;
	to N_L_44119_sec_C;
	configuration Xfrm_config_PV_L_44119_C;
}

object transformer {
	name Xfrm_L_95237_A;
	phases AS;
	from N_1200015168;
	to N_L_95237_sec_A;
	configuration Xfrm_config_PV_L_95237_A;
}

object transformer {
	name Xfrm_L_95237_C;
	phases CS;
	from N_1200015168;
	to N_L_95237_sec_C;
	configuration Xfrm_config_PV_L_95237_C;
}

object transformer {
	name Xfrm_L_95237_B;
	phases BS;
	from N_1200015168;
	to N_L_95237_sec_B;
	configuration Xfrm_config_PV_L_95237_B;
}

object transformer {
	name Xfrm_L_23293_B;
	phases BS;
	from N_1200160238;
	to N_L_23293_sec_B;
	configuration Xfrm_config_PV_L_23293_B;
}

object transformer {
	name Xfrm_L_23293_C;
	phases CS;
	from N_1200160238;
	to N_L_23293_sec_C;
	configuration Xfrm_config_PV_L_23293_C;
}

object transformer {
	name Xfrm_L_23293_A;
	phases AS;
	from N_1200160238;
	to N_L_23293_sec_A;
	configuration Xfrm_config_PV_L_23293_A;
}

object transformer {
	name Xfrm_L_12848_B;
	phases BS;
	from N_1200166600;
	to N_L_12848_sec_B;
	configuration Xfrm_config_PV_L_12848_B;
}

object transformer {
	name Xfrm_L_12848_C;
	phases CS;
	from N_1200166600;
	to N_L_12848_sec_C;
	configuration Xfrm_config_PV_L_12848_C;
}

object transformer {
	name Xfrm_L_71819_A;
	phases AS;
	from N_1200467589;
	to N_L_71819_sec_A;
	configuration Xfrm_config_PV_L_71819_A;
}

object transformer {
	name Xfrm_L_93782_C;
	phases CS;
	from N_1200020594;
	to N_L_93782_sec_C;
	configuration Xfrm_config_PV_L_93782_C;
}

object transformer {
	name Xfrm_L_71819_C;
	phases CS;
	from N_1200467589;
	to N_L_71819_sec_C;
	configuration Xfrm_config_PV_L_71819_C;
}

object transformer {
	name Xfrm_L_71819_B;
	phases BS;
	from N_1200467589;
	to N_L_71819_sec_B;
	configuration Xfrm_config_PV_L_71819_B;
}

object transformer {
	name Xfrm_L_93246_C;
	phases CS;
	from N_1200160165;
	to N_L_93246_sec_C;
	configuration Xfrm_config_PV_L_93246_C;
}

object transformer {
	name Xfrm_L_93246_B;
	phases BS;
	from N_1200160165;
	to N_L_93246_sec_B;
	configuration Xfrm_config_PV_L_93246_B;
}

object transformer {
	name Xfrm_L_93246_A;
	phases AS;
	from N_1200160165;
	to N_L_93246_sec_A;
	configuration Xfrm_config_PV_L_93246_A;
}

object transformer {
	name Xfrm_L_110646_A;
	phases AS;
	from N_1200111328;
	to N_L_110646_sec_A;
	configuration Xfrm_config_PV_L_110646_A;
}

object transformer {
	name Xfrm_L_47360_C;
	phases CS;
	from N_1200159379;
	to N_L_47360_sec_C;
	configuration Xfrm_config_PV_L_47360_C;
}

object transformer {
	name Xfrm_L_47360_B;
	phases BS;
	from N_1200159379;
	to N_L_47360_sec_B;
	configuration Xfrm_config_PV_L_47360_B;
}

object transformer {
	name Xfrm_L_47360_A;
	phases AS;
	from N_1200159379;
	to N_L_47360_sec_A;
	configuration Xfrm_config_PV_L_47360_A;
}

object transformer {
	name Xfrm_L_80745_A;
	phases AS;
	from N_1200160178;
	to N_L_80745_sec_A;
	configuration Xfrm_config_PV_L_80745_A;
}

object transformer {
	name Xfrm_L_80745_C;
	phases CS;
	from N_1200160178;
	to N_L_80745_sec_C;
	configuration Xfrm_config_PV_L_80745_C;
}

object transformer {
	name Xfrm_L_80745_B;
	phases BS;
	from N_1200160178;
	to N_L_80745_sec_B;
	configuration Xfrm_config_PV_L_80745_B;
}

object transformer {
	name Xfrm_L_147235_B;
	phases BS;
	from N_1200099731;
	to N_L_147235_sec_B;
	configuration Xfrm_config_PV_L_147235_B;
}

object transformer {
	name Xfrm_L_147235_A;
	phases AS;
	from N_1200099731;
	to N_L_147235_sec_A;
	configuration Xfrm_config_PV_L_147235_A;
}

object transformer {
	name Xfrm_L_88263_A;
	phases AS;
	from N_1200105643;
	to N_L_88263_sec_A;
	configuration Xfrm_config_PV_L_88263_A;
}

object transformer {
	name Xfrm_L_146573_B;
	phases BS;
	from N_1200099731;
	to N_L_146573_sec_B;
	configuration Xfrm_config_PV_L_146573_B;
}

object transformer {
	name Xfrm_L_110646_B;
	phases BS;
	from N_1200111328;
	to N_L_110646_sec_B;
	configuration Xfrm_config_PV_L_110646_B;
}

object transformer {
	name Xfrm_L_7848_A;
	phases AS;
	from N_1200166600;
	to N_L_7848_sec_A;
	configuration Xfrm_config_PV_L_7848_A;
}

object transformer {
	name Xfrm_L_129312_B;
	phases BS;
	from N_1200127692;
	to N_L_129312_sec_B;
	configuration Xfrm_config_PV_L_129312_B;
}

object transformer {
	name Xfrm_L_7848_C;
	phases CS;
	from N_1200166600;
	to N_L_7848_sec_C;
	configuration Xfrm_config_PV_L_7848_C;
}

object transformer {
	name Xfrm_L_7848_B;
	phases BS;
	from N_1200166600;
	to N_L_7848_sec_B;
	configuration Xfrm_config_PV_L_7848_B;
}

object transformer {
	name Xfrm_L_69497_B;
	phases BS;
	from N_1200091943;
	to N_L_69497_sec_B;
	configuration Xfrm_config_PV_L_69497_B;
}

object transformer {
	name Xfrm_L_69497_C;
	phases CS;
	from N_1200091943;
	to N_L_69497_sec_C;
	configuration Xfrm_config_PV_L_69497_C;
}

object transformer {
	name Xfrm_L_88263_B;
	phases BS;
	from N_1200105643;
	to N_L_88263_sec_B;
	configuration Xfrm_config_PV_L_88263_B;
}

object transformer {
	name Xfrm_L_69497_A;
	phases AS;
	from N_1200091943;
	to N_L_69497_sec_A;
	configuration Xfrm_config_PV_L_69497_A;
}

object transformer {
	name Xfrm_L_5328_B;
	phases BS;
	from N_1200160189;
	to N_L_5328_sec_B;
	configuration Xfrm_config_PV_L_5328_B;
}

object transformer {
	name Xfrm_L_5328_A;
	phases AS;
	from N_1200160189;
	to N_L_5328_sec_A;
	configuration Xfrm_config_PV_L_5328_A;
}

object transformer {
	name Xfrm_L_17899_B;
	phases BS;
	from N_1200109712;
	to N_L_17899_sec_B;
	configuration Xfrm_config_PV_L_17899_B;
}

object transformer {
	name Xfrm_L_93387_C;
	phases CS;
	from N_1200098688;
	to N_L_93387_sec_C;
	configuration Xfrm_config_PV_L_93387_C;
}

object transformer {
	name Xfrm_L_93387_B;
	phases BS;
	from N_1200098688;
	to N_L_93387_sec_B;
	configuration Xfrm_config_PV_L_93387_B;
}

object transformer {
	name Xfrm_L_93387_A;
	phases AS;
	from N_1200098688;
	to N_L_93387_sec_A;
	configuration Xfrm_config_PV_L_93387_A;
}

object transformer {
	name Xfrm_L_112617_A;
	phases AS;
	from N_1200160227;
	to N_L_112617_sec_A;
	configuration Xfrm_config_PV_L_112617_A;
}

object transformer {
	name Xfrm_L_112617_B;
	phases BS;
	from N_1200160227;
	to N_L_112617_sec_B;
	configuration Xfrm_config_PV_L_112617_B;
}

object transformer {
	name Xfrm_L_112617_C;
	phases CS;
	from N_1200160227;
	to N_L_112617_sec_C;
	configuration Xfrm_config_PV_L_112617_C;
}

object transformer {
	name Xfrm_L_109167_B;
	phases BS;
	from N_1200160307;
	to N_L_109167_sec_B;
	configuration Xfrm_config_PV_L_109167_B;
}

object transformer {
	name Xfrm_L_109167_C;
	phases CS;
	from N_1200160307;
	to N_L_109167_sec_C;
	configuration Xfrm_config_PV_L_109167_C;
}

object transformer {
	name Xfrm_L_109167_A;
	phases AS;
	from N_1200160307;
	to N_L_109167_sec_A;
	configuration Xfrm_config_PV_L_109167_A;
}

object transformer {
	name Xfrm_L_120338_A;
	phases AS;
	from N_1200127693;
	to N_L_120338_sec_A;
	configuration Xfrm_config_PV_L_120338_A;
}

object transformer {
	name Xfrm_L_120338_C;
	phases CS;
	from N_1200127693;
	to N_L_120338_sec_C;
	configuration Xfrm_config_PV_L_120338_C;
}

object transformer {
	name Xfrm_L_120338_B;
	phases BS;
	from N_1200127693;
	to N_L_120338_sec_B;
	configuration Xfrm_config_PV_L_120338_B;
}

object transformer {
	name Xfrm_L_88263_C;
	phases CS;
	from N_1200105643;
	to N_L_88263_sec_C;
	configuration Xfrm_config_PV_L_88263_C;
}

object transformer {
	name Xfrm_L_11261_A;
	phases AS;
	from N_1200129950;
	to N_L_11261_sec_A;
	configuration Xfrm_config_PV_L_11261_A;
}

object transformer {
	name Xfrm_L_11261_B;
	phases BS;
	from N_1200129950;
	to N_L_11261_sec_B;
	configuration Xfrm_config_PV_L_11261_B;
}

object transformer {
	name Xfrm_L_11261_C;
	phases CS;
	from N_1200129950;
	to N_L_11261_sec_C;
	configuration Xfrm_config_PV_L_11261_C;
}

object transformer {
	name Xfrm_L_89131_A;
	phases AS;
	from N_1200018571;
	to N_L_89131_sec_A;
	configuration Xfrm_config_PV_L_89131_A;
}

object transformer {
	name Xfrm_L_89131_C;
	phases CS;
	from N_1200018571;
	to N_L_89131_sec_C;
	configuration Xfrm_config_PV_L_89131_C;
}

object transformer {
	name Xfrm_L_89131_B;
	phases BS;
	from N_1200018571;
	to N_L_89131_sec_B;
	configuration Xfrm_config_PV_L_89131_B;
}

object transformer {
	name Xfrm_L_66364_B;
	phases BS;
	from N_1200129554;
	to N_L_66364_sec_B;
	configuration Xfrm_config_PV_L_66364_B;
}

object transformer {
	name Xfrm_L_66364_C;
	phases CS;
	from N_1200129554;
	to N_L_66364_sec_C;
	configuration Xfrm_config_PV_L_66364_C;
}

object transformer {
	name Xfrm_L_66364_A;
	phases AS;
	from N_1200129554;
	to N_L_66364_sec_A;
	configuration Xfrm_config_PV_L_66364_A;
}

object transformer {
	name Xfrm_L_146129_A;
	phases AS;
	from N_1200130119;
	to N_L_146129_sec_A;
	configuration Xfrm_config_PV_L_146129_A;
}

object transformer {
	name Xfrm_L_12848_A;
	phases AS;
	from N_1200166600;
	to N_L_12848_sec_A;
	configuration Xfrm_config_PV_L_12848_A;
}

object transformer {
	name Xfrm_L_146129_C;
	phases CS;
	from N_1200130119;
	to N_L_146129_sec_C;
	configuration Xfrm_config_PV_L_146129_C;
}

object transformer {
	name Xfrm_L_146129_B;
	phases BS;
	from N_1200130119;
	to N_L_146129_sec_B;
	configuration Xfrm_config_PV_L_146129_B;
}

object transformer {
	name Xfrm_L_136869_C;
	phases CS;
	from N_1200071893;
	to N_L_136869_sec_C;
	configuration Xfrm_config_PV_L_136869_C;
}

object transformer {
	name Xfrm_L_136869_B;
	phases BS;
	from N_1200071893;
	to N_L_136869_sec_B;
	configuration Xfrm_config_PV_L_136869_B;
}

object transformer {
	name Xfrm_L_136869_A;
	phases AS;
	from N_1200071893;
	to N_L_136869_sec_A;
	configuration Xfrm_config_PV_L_136869_A;
}

object transformer {
	name Xfrm_L_67765_A;
	phases AS;
	from N_1200180283;
	to N_L_67765_sec_A;
	configuration Xfrm_config_PV_L_67765_A;
}

object transformer {
	name Xfrm_L_67765_B;
	phases BS;
	from N_1200180283;
	to N_L_67765_sec_B;
	configuration Xfrm_config_PV_L_67765_B;
}

object transformer {
	name Xfrm_L_139629_A;
	phases AS;
	from N_1200109761;
	to N_L_139629_sec_A;
	configuration Xfrm_config_PV_L_139629_A;
}

object transformer {
	name Xfrm_L_139629_B;
	phases BS;
	from N_1200109761;
	to N_L_139629_sec_B;
	configuration Xfrm_config_PV_L_139629_B;
}

object transformer {
	name Xfrm_L_139629_C;
	phases CS;
	from N_1200109761;
	to N_L_139629_sec_C;
	configuration Xfrm_config_PV_L_139629_C;
}

object transformer {
	name Xfrm_L_129752_B;
	phases BS;
	from N_1200082369;
	to N_L_129752_sec_B;
	configuration Xfrm_config_PV_L_129752_B;
}

object transformer {
	name Xfrm_L_129752_C;
	phases CS;
	from N_1200082369;
	to N_L_129752_sec_C;
	configuration Xfrm_config_PV_L_129752_C;
}

object transformer {
	name Xfrm_L_129752_A;
	phases AS;
	from N_1200082369;
	to N_L_129752_sec_A;
	configuration Xfrm_config_PV_L_129752_A;
}

object transformer {
	name Xfrm_L_31958_A;
	phases AS;
	from N_1200071814;
	to N_L_31958_sec_A;
	configuration Xfrm_config_PV_L_31958_A;
}

object transformer {
	name Xfrm_L_31958_C;
	phases CS;
	from N_1200071814;
	to N_L_31958_sec_C;
	configuration Xfrm_config_PV_L_31958_C;
}

object transformer {
	name Xfrm_L_31958_B;
	phases BS;
	from N_1200071814;
	to N_L_31958_sec_B;
	configuration Xfrm_config_PV_L_31958_B;
}

object transformer {
	name Xfrm_L_100175_A;
	phases AS;
	from N_1200099738;
	to N_L_100175_sec_A;
	configuration Xfrm_config_PV_L_100175_A;
}

object transformer {
	name Xfrm_L_125789_B;
	phases BS;
	from N_1200160143;
	to N_L_125789_sec_B;
	configuration Xfrm_config_PV_L_125789_B;
}

object transformer {
	name Xfrm_L_125789_C;
	phases CS;
	from N_1200160143;
	to N_L_125789_sec_C;
	configuration Xfrm_config_PV_L_125789_C;
}

object transformer {
	name Xfrm_L_125789_A;
	phases AS;
	from N_1200160143;
	to N_L_125789_sec_A;
	configuration Xfrm_config_PV_L_125789_A;
}

object transformer {
	name Xfrm_L_139082_B;
	phases BS;
	from N_1200057348;
	to N_L_139082_sec_B;
	configuration Xfrm_config_PV_L_139082_B;
}

object transformer {
	name Xfrm_L_139082_A;
	phases AS;
	from N_1200057348;
	to N_L_139082_sec_A;
	configuration Xfrm_config_PV_L_139082_A;
}

object transformer {
	name Xfrm_L_95189_A;
	phases AS;
	from N_1200082369;
	to N_L_95189_sec_A;
	configuration Xfrm_config_PV_L_95189_A;
}

object transformer {
	name Xfrm_L_95189_C;
	phases CS;
	from N_1200082369;
	to N_L_95189_sec_C;
	configuration Xfrm_config_PV_L_95189_C;
}

object transformer {
	name Xfrm_L_95189_B;
	phases BS;
	from N_1200082369;
	to N_L_95189_sec_B;
	configuration Xfrm_config_PV_L_95189_B;
}

object transformer {
	name Xfrm_L_61946_A;
	phases AS;
	from N_1200130260;
	to N_L_61946_sec_A;
	configuration Xfrm_config_PV_L_61946_A;
}

object transformer {
	name Xfrm_L_146573_A;
	phases AS;
	from N_1200099731;
	to N_L_146573_sec_A;
	configuration Xfrm_config_PV_L_146573_A;
}

object transformer {
	name Xfrm_L_61946_C;
	phases CS;
	from N_1200130260;
	to N_L_61946_sec_C;
	configuration Xfrm_config_PV_L_61946_C;
}

object transformer {
	name Xfrm_L_61946_B;
	phases BS;
	from N_1200130260;
	to N_L_61946_sec_B;
	configuration Xfrm_config_PV_L_61946_B;
}

object transformer {
	name Xfrm_L_93782_B;
	phases BS;
	from N_1200020594;
	to N_L_93782_sec_B;
	configuration Xfrm_config_PV_L_93782_B;
}

object transformer {
	name Xfrm_L_21523_B;
	phases BS;
	from N_1200030909;
	to N_L_21523_sec_B;
	configuration Xfrm_config_PV_L_21523_B;
}

object transformer {
	name Xfrm_L_21523_C;
	phases CS;
	from N_1200030909;
	to N_L_21523_sec_C;
	configuration Xfrm_config_PV_L_21523_C;
}

object transformer {
	name Xfrm_L_21523_A;
	phases AS;
	from N_1200030909;
	to N_L_21523_sec_A;
	configuration Xfrm_config_PV_L_21523_A;
}

object transformer {
	name Xfrm_L_93782_A;
	phases AS;
	from N_1200020594;
	to N_L_93782_sec_A;
	configuration Xfrm_config_PV_L_93782_A;
}

object transformer {
	name Xfrm_L_92640_B;
	phases BS;
	from N_1200099737;
	to N_L_92640_sec_B;
	configuration Xfrm_config_PV_L_92640_B;
}

object transformer {
	name Xfrm_L_146575_B;
	phases BS;
	from N_1200057348;
	to N_L_146575_sec_B;
	configuration Xfrm_config_PV_L_146575_B;
}

object transformer {
	name Xfrm_L_57342_B;
	phases BS;
	from N_1200166263;
	to N_L_57342_sec_B;
	configuration Xfrm_config_PV_L_57342_B;
}

object transformer {
	name Xfrm_L_57342_C;
	phases CS;
	from N_1200166263;
	to N_L_57342_sec_C;
	configuration Xfrm_config_PV_L_57342_C;
}

object transformer {
	name Xfrm_L_82992_A;
	phases AS;
	from N_1200130412;
	to N_L_82992_sec_A;
	configuration Xfrm_config_PV_L_82992_A;
}

object transformer {
	name Xfrm_L_82992_C;
	phases CS;
	from N_1200130412;
	to N_L_82992_sec_C;
	configuration Xfrm_config_PV_L_82992_C;
}

object transformer {
	name Xfrm_L_57342_A;
	phases AS;
	from N_1200166263;
	to N_L_57342_sec_A;
	configuration Xfrm_config_PV_L_57342_A;
}

object transformer {
	name Xfrm_L_135160_B;
	phases BS;
	from N_1200099737;
	to N_L_135160_sec_B;
	configuration Xfrm_config_PV_L_135160_B;
}

object transformer {
	name Xfrm_L_135160_A;
	phases AS;
	from N_1200099737;
	to N_L_135160_sec_A;
	configuration Xfrm_config_PV_L_135160_A;
}

object transformer {
	name Xfrm_L_62839_B;
	phases BS;
	from N_1200159418;
	to N_L_62839_sec_B;
	configuration Xfrm_config_PV_L_62839_B;
}

object transformer {
	name Xfrm_L_62839_A;
	phases AS;
	from N_1200159418;
	to N_L_62839_sec_A;
	configuration Xfrm_config_PV_L_62839_A;
}

object transformer {
	name Xfrm_L_89260_A;
	phases AS;
	from N_1200018571;
	to N_L_89260_sec_A;
	configuration Xfrm_config_PV_L_89260_A;
}

object transformer {
	name Xfrm_L_89260_B;
	phases BS;
	from N_1200018571;
	to N_L_89260_sec_B;
	configuration Xfrm_config_PV_L_89260_B;
}

object transformer {
	name Xfrm_L_89260_C;
	phases CS;
	from N_1200018571;
	to N_L_89260_sec_C;
	configuration Xfrm_config_PV_L_89260_C;
}

object transformer {
	name Xfrm_L_46121_B;
	phases BS;
	from N_1200074263;
	to N_L_46121_sec_B;
	configuration Xfrm_config_PV_L_46121_B;
}

object transformer {
	name Xfrm_L_46121_A;
	phases AS;
	from N_1200074263;
	to N_L_46121_sec_A;
	configuration Xfrm_config_PV_L_46121_A;
}

object transformer {
	name Xfrm_L_17899_A;
	phases AS;
	from N_1200109712;
	to N_L_17899_sec_A;
	configuration Xfrm_config_PV_L_17899_A;
}

object transformer {
	name Xfrm_L_129312_C;
	phases CS;
	from N_1200127692;
	to N_L_129312_sec_C;
	configuration Xfrm_config_PV_L_129312_C;
}

object transformer {
	name Xfrm_L_17899_C;
	phases CS;
	from N_1200109712;
	to N_L_17899_sec_C;
	configuration Xfrm_config_PV_L_17899_C;
}

object transformer {
	name Xfrm_L_129312_A;
	phases AS;
	from N_1200127692;
	to N_L_129312_sec_A;
	configuration Xfrm_config_PV_L_129312_A;
}

object transformer {
	name Xfrm_L_100175_B;
	phases BS;
	from N_1200099738;
	to N_L_100175_sec_B;
	configuration Xfrm_config_PV_L_100175_B;
}

object transformer {
	name Xfrm_L_115748_A;
	phases AS;
	from N_1200130412;
	to N_L_115748_sec_A;
	configuration Xfrm_config_PV_L_115748_A;
}

...